<?xml version="1.0"?>
<!-- generated on 2014-08-13 13:25:38.056033 by $Id$ -->
<trips>

<!-- 
<vType id="car" accel="0.8" decel="4.5" sigma="1.0" length="4" minGap="2.5" maxSpeed="13.89" guiShape="passenger" />
  <trip id="car" depart="30" from="A4B4" to="E1E0" />

 -->
  
  
</trips>