<?xml version="1.0" encoding="UTF-8"?>

<!-- generated on 2025-04-07 12:32:14 by Eclipse SUMO netgenerate Version 1.11.0
<configuration xmlns:xsi="http://www.w3.org/2001/XMLSchema-instance" xsi:noNamespaceSchemaLocation="http://sumo.dlr.de/xsd/netgenerateConfiguration.xsd">

    <grid_network>
        <grid value="true"/>
        <grid.number value="5"/>
        <grid.length value="500"/>
    </grid_network>

    <output>
        <output-file value="5x5Grid_4lanes.net.xml"/>
    </output>

    <building_defaults>
        <default.lanenumber value="2"/>
        <default.speed value="13.9"/>
    </building_defaults>

    <tls_building>
        <tls.guess value="true"/>
        <tls.default-type value="actuated"/>
    </tls_building>

    <junctions>
        <no-turnarounds value="true"/>
    </junctions>

</configuration>
-->

<net version="1.9" junctionCornerDetail="5" limitTurnSpeed="5.50" xmlns:xsi="http://www.w3.org/2001/XMLSchema-instance" xsi:noNamespaceSchemaLocation="http://sumo.dlr.de/xsd/net_file.xsd">

    <location netOffset="0.00,0.00" convBoundary="0.00,0.00,2000.00,2000.00" origBoundary="0.00,0.00,2000.00,2000.00" projParameter="!"/>

    <edge id=":A0_0" function="internal">
        <lane id=":A0_0_0" index="0" speed="8.96" length="18.06" shape="-4.80,6.40 -4.10,1.50 -2.00,-2.00 1.50,-4.10 6.40,-4.80"/>
        <lane id=":A0_0_1" index="1" speed="7.66" length="12.90" shape="-1.60,6.40 -1.10,2.90 0.40,0.40 2.90,-1.10 6.40,-1.60"/>
    </edge>
    <edge id=":A0_2" function="internal">
        <lane id=":A0_2_0" index="0" speed="3.90" length="2.58" shape="6.40,4.80 5.70,4.90 5.20,5.20 4.90,5.70 4.80,6.40"/>
        <lane id=":A0_2_1" index="1" speed="6.08" length="7.74" shape="6.40,1.60 4.30,1.90 2.80,2.80 1.90,4.30 1.60,6.40"/>
    </edge>
    <edge id=":A1_0" function="internal">
        <lane id=":A1_0_0" index="0" speed="13.90" length="20.80" shape="-4.80,510.40 -4.80,489.60"/>
        <lane id=":A1_0_1" index="1" speed="13.90" length="20.80" shape="-1.60,510.40 -1.60,489.60"/>
    </edge>
    <edge id=":A1_2" function="internal">
        <lane id=":A1_2_0" index="0" speed="9.26" length="6.96" shape="-1.60,510.40 -0.85,505.15 0.00,503.73"/>
    </edge>
    <edge id=":A1_9" function="internal">
        <lane id=":A1_9_0" index="0" speed="9.26" length="12.40" shape="0.00,503.73 1.40,501.40 5.15,499.15 10.40,498.40"/>
    </edge>
    <edge id=":A1_3" function="internal">
        <lane id=":A1_3_0" index="0" speed="6.51" length="9.03" shape="10.40,504.80 7.95,505.15 6.20,506.20 5.15,507.95 4.80,510.40"/>
        <lane id=":A1_3_1" index="1" speed="8.00" length="14.19" shape="10.40,501.60 6.55,502.15 3.80,503.80 2.15,506.55 1.60,510.40"/>
    </edge>
    <edge id=":A1_5" function="internal">
        <lane id=":A1_5_0" index="0" speed="9.26" length="19.35" shape="10.40,501.60 5.15,500.85 1.40,498.60 -0.85,494.85 -1.60,489.60"/>
    </edge>
    <edge id=":A1_6" function="internal">
        <lane id=":A1_6_0" index="0" speed="6.51" length="9.03" shape="4.80,489.60 5.15,492.05 6.20,493.80 7.95,494.85 10.40,495.20"/>
    </edge>
    <edge id=":A1_7" function="internal">
        <lane id=":A1_7_0" index="0" speed="13.90" length="20.80" shape="4.80,489.60 4.80,510.40"/>
        <lane id=":A1_7_1" index="1" speed="13.90" length="20.80" shape="1.60,489.60 1.60,510.40"/>
    </edge>
    <edge id=":A2_0" function="internal">
        <lane id=":A2_0_0" index="0" speed="13.90" length="20.80" shape="-4.80,1010.40 -4.80,989.60"/>
        <lane id=":A2_0_1" index="1" speed="13.90" length="20.80" shape="-1.60,1010.40 -1.60,989.60"/>
    </edge>
    <edge id=":A2_2" function="internal">
        <lane id=":A2_2_0" index="0" speed="9.26" length="6.96" shape="-1.60,1010.40 -0.85,1005.15 -0.00,1003.73"/>
    </edge>
    <edge id=":A2_9" function="internal">
        <lane id=":A2_9_0" index="0" speed="9.26" length="12.40" shape="-0.00,1003.73 1.40,1001.40 5.15,999.15 10.40,998.40"/>
    </edge>
    <edge id=":A2_3" function="internal">
        <lane id=":A2_3_0" index="0" speed="6.51" length="9.03" shape="10.40,1004.80 7.95,1005.15 6.20,1006.20 5.15,1007.95 4.80,1010.40"/>
        <lane id=":A2_3_1" index="1" speed="8.00" length="14.19" shape="10.40,1001.60 6.55,1002.15 3.80,1003.80 2.15,1006.55 1.60,1010.40"/>
    </edge>
    <edge id=":A2_5" function="internal">
        <lane id=":A2_5_0" index="0" speed="9.26" length="19.35" shape="10.40,1001.60 5.15,1000.85 1.40,998.60 -0.85,994.85 -1.60,989.60"/>
    </edge>
    <edge id=":A2_6" function="internal">
        <lane id=":A2_6_0" index="0" speed="6.51" length="9.03" shape="4.80,989.60 5.15,992.05 6.20,993.80 7.95,994.85 10.40,995.20"/>
    </edge>
    <edge id=":A2_7" function="internal">
        <lane id=":A2_7_0" index="0" speed="13.90" length="20.80" shape="4.80,989.60 4.80,1010.40"/>
        <lane id=":A2_7_1" index="1" speed="13.90" length="20.80" shape="1.60,989.60 1.60,1010.40"/>
    </edge>
    <edge id=":A3_0" function="internal">
        <lane id=":A3_0_0" index="0" speed="13.90" length="20.80" shape="-4.80,1510.40 -4.80,1489.60"/>
        <lane id=":A3_0_1" index="1" speed="13.90" length="20.80" shape="-1.60,1510.40 -1.60,1489.60"/>
    </edge>
    <edge id=":A3_2" function="internal">
        <lane id=":A3_2_0" index="0" speed="9.26" length="6.96" shape="-1.60,1510.40 -0.85,1505.15 0.00,1503.73"/>
    </edge>
    <edge id=":A3_9" function="internal">
        <lane id=":A3_9_0" index="0" speed="9.26" length="12.40" shape="0.00,1503.73 1.40,1501.40 5.15,1499.15 10.40,1498.40"/>
    </edge>
    <edge id=":A3_3" function="internal">
        <lane id=":A3_3_0" index="0" speed="6.51" length="9.03" shape="10.40,1504.80 7.95,1505.15 6.20,1506.20 5.15,1507.95 4.80,1510.40"/>
        <lane id=":A3_3_1" index="1" speed="8.00" length="14.19" shape="10.40,1501.60 6.55,1502.15 3.80,1503.80 2.15,1506.55 1.60,1510.40"/>
    </edge>
    <edge id=":A3_5" function="internal">
        <lane id=":A3_5_0" index="0" speed="9.26" length="19.35" shape="10.40,1501.60 5.15,1500.85 1.40,1498.60 -0.85,1494.85 -1.60,1489.60"/>
    </edge>
    <edge id=":A3_6" function="internal">
        <lane id=":A3_6_0" index="0" speed="6.51" length="9.03" shape="4.80,1489.60 5.15,1492.05 6.20,1493.80 7.95,1494.85 10.40,1495.20"/>
    </edge>
    <edge id=":A3_7" function="internal">
        <lane id=":A3_7_0" index="0" speed="13.90" length="20.80" shape="4.80,1489.60 4.80,1510.40"/>
        <lane id=":A3_7_1" index="1" speed="13.90" length="20.80" shape="1.60,1489.60 1.60,1510.40"/>
    </edge>
    <edge id=":A4_0" function="internal">
        <lane id=":A4_0_0" index="0" speed="8.96" length="18.06" shape="6.40,2004.80 1.50,2004.10 -2.00,2002.00 -4.10,1998.50 -4.80,1993.60"/>
        <lane id=":A4_0_1" index="1" speed="7.66" length="12.90" shape="6.40,2001.60 2.90,2001.10 0.40,1999.60 -1.10,1997.10 -1.60,1993.60"/>
    </edge>
    <edge id=":A4_2" function="internal">
        <lane id=":A4_2_0" index="0" speed="3.90" length="2.58" shape="4.80,1993.60 4.90,1994.30 5.20,1994.80 5.70,1995.10 6.40,1995.20"/>
        <lane id=":A4_2_1" index="1" speed="6.08" length="7.74" shape="1.60,1993.60 1.90,1995.70 2.80,1997.20 4.30,1998.10 6.40,1998.40"/>
    </edge>
    <edge id=":B0_0" function="internal">
        <lane id=":B0_0_0" index="0" speed="6.51" length="9.03" shape="495.20,10.40 494.85,7.95 493.80,6.20 492.05,5.15 489.60,4.80"/>
        <lane id=":B0_0_1" index="1" speed="8.00" length="14.19" shape="498.40,10.40 497.85,6.55 496.20,3.80 493.45,2.15 489.60,1.60"/>
    </edge>
    <edge id=":B0_2" function="internal">
        <lane id=":B0_2_0" index="0" speed="9.26" length="19.35" shape="498.40,10.40 499.15,5.15 501.40,1.40 505.15,-0.85 510.40,-1.60"/>
    </edge>
    <edge id=":B0_3" function="internal">
        <lane id=":B0_3_0" index="0" speed="6.51" length="9.03" shape="510.40,4.80 507.95,5.15 506.20,6.20 505.15,7.95 504.80,10.40"/>
    </edge>
    <edge id=":B0_4" function="internal">
        <lane id=":B0_4_0" index="0" speed="13.90" length="20.80" shape="510.40,4.80 489.60,4.80"/>
        <lane id=":B0_4_1" index="1" speed="13.90" length="20.80" shape="510.40,1.60 489.60,1.60"/>
    </edge>
    <edge id=":B0_6" function="internal">
        <lane id=":B0_6_0" index="0" speed="13.90" length="20.80" shape="489.60,-4.80 510.40,-4.80"/>
        <lane id=":B0_6_1" index="1" speed="13.90" length="20.80" shape="489.60,-1.60 510.40,-1.60"/>
    </edge>
    <edge id=":B0_8" function="internal">
        <lane id=":B0_8_0" index="0" speed="9.26" length="6.96" shape="489.60,-1.60 494.85,-0.85 496.27,0.00"/>
    </edge>
    <edge id=":B0_9" function="internal">
        <lane id=":B0_9_0" index="0" speed="9.26" length="12.40" shape="496.27,0.00 498.60,1.40 500.85,5.15 501.60,10.40"/>
    </edge>
    <edge id=":B1_0" function="internal">
        <lane id=":B1_0_0" index="0" speed="6.51" length="9.03" shape="495.20,510.40 494.85,507.95 493.80,506.20 492.05,505.15 489.60,504.80"/>
    </edge>
    <edge id=":B1_1" function="internal">
        <lane id=":B1_1_0" index="0" speed="13.90" length="20.80" shape="495.20,510.40 495.20,489.60"/>
        <lane id=":B1_1_1" index="1" speed="13.90" length="20.80" shape="498.40,510.40 498.40,489.60"/>
    </edge>
    <edge id=":B1_3" function="internal">
        <lane id=":B1_3_0" index="0" speed="9.26" length="6.96" shape="498.40,510.40 499.15,505.15 500.00,503.73"/>
    </edge>
    <edge id=":B1_16" function="internal">
        <lane id=":B1_16_0" index="0" speed="9.26" length="12.40" shape="500.00,503.73 501.40,501.40 505.15,499.15 510.40,498.40"/>
    </edge>
    <edge id=":B1_4" function="internal">
        <lane id=":B1_4_0" index="0" speed="6.51" length="9.03" shape="510.40,504.80 507.95,505.15 506.20,506.20 505.15,507.95 504.80,510.40"/>
    </edge>
    <edge id=":B1_5" function="internal">
        <lane id=":B1_5_0" index="0" speed="13.90" length="20.80" shape="510.40,504.80 489.60,504.80"/>
        <lane id=":B1_5_1" index="1" speed="13.90" length="20.80" shape="510.40,501.60 489.60,501.60"/>
    </edge>
    <edge id=":B1_7" function="internal">
        <lane id=":B1_7_0" index="0" speed="9.26" length="6.96" shape="510.40,501.60 505.15,500.85 503.73,500.00"/>
    </edge>
    <edge id=":B1_17" function="internal">
        <lane id=":B1_17_0" index="0" speed="9.26" length="12.40" shape="503.73,500.00 501.40,498.60 499.15,494.85 498.40,489.60"/>
    </edge>
    <edge id=":B1_8" function="internal">
        <lane id=":B1_8_0" index="0" speed="6.51" length="9.03" shape="504.80,489.60 505.15,492.05 506.20,493.80 507.95,494.85 510.40,495.20"/>
    </edge>
    <edge id=":B1_9" function="internal">
        <lane id=":B1_9_0" index="0" speed="13.90" length="20.80" shape="504.80,489.60 504.80,510.40"/>
        <lane id=":B1_9_1" index="1" speed="13.90" length="20.80" shape="501.60,489.60 501.60,510.40"/>
    </edge>
    <edge id=":B1_11" function="internal">
        <lane id=":B1_11_0" index="0" speed="9.26" length="6.96" shape="501.60,489.60 500.85,494.85 500.00,496.27"/>
    </edge>
    <edge id=":B1_18" function="internal">
        <lane id=":B1_18_0" index="0" speed="9.26" length="12.40" shape="500.00,496.27 498.60,498.60 494.85,500.85 489.60,501.60"/>
    </edge>
    <edge id=":B1_12" function="internal">
        <lane id=":B1_12_0" index="0" speed="6.51" length="9.03" shape="489.60,495.20 492.05,494.85 493.80,493.80 494.85,492.05 495.20,489.60"/>
    </edge>
    <edge id=":B1_13" function="internal">
        <lane id=":B1_13_0" index="0" speed="13.90" length="20.80" shape="489.60,495.20 510.40,495.20"/>
        <lane id=":B1_13_1" index="1" speed="13.90" length="20.80" shape="489.60,498.40 510.40,498.40"/>
    </edge>
    <edge id=":B1_15" function="internal">
        <lane id=":B1_15_0" index="0" speed="9.26" length="6.96" shape="489.60,498.40 494.85,499.15 496.27,500.00"/>
    </edge>
    <edge id=":B1_19" function="internal">
        <lane id=":B1_19_0" index="0" speed="9.26" length="12.40" shape="496.27,500.00 498.60,501.40 500.85,505.15 501.60,510.40"/>
    </edge>
    <edge id=":B2_0" function="internal">
        <lane id=":B2_0_0" index="0" speed="6.51" length="9.03" shape="495.20,1010.40 494.85,1007.95 493.80,1006.20 492.05,1005.15 489.60,1004.80"/>
    </edge>
    <edge id=":B2_1" function="internal">
        <lane id=":B2_1_0" index="0" speed="13.90" length="20.80" shape="495.20,1010.40 495.20,989.60"/>
        <lane id=":B2_1_1" index="1" speed="13.90" length="20.80" shape="498.40,1010.40 498.40,989.60"/>
    </edge>
    <edge id=":B2_3" function="internal">
        <lane id=":B2_3_0" index="0" speed="9.26" length="6.96" shape="498.40,1010.40 499.15,1005.15 500.00,1003.73"/>
    </edge>
    <edge id=":B2_16" function="internal">
        <lane id=":B2_16_0" index="0" speed="9.26" length="12.40" shape="500.00,1003.73 501.40,1001.40 505.15,999.15 510.40,998.40"/>
    </edge>
    <edge id=":B2_4" function="internal">
        <lane id=":B2_4_0" index="0" speed="6.51" length="9.03" shape="510.40,1004.80 507.95,1005.15 506.20,1006.20 505.15,1007.95 504.80,1010.40"/>
    </edge>
    <edge id=":B2_5" function="internal">
        <lane id=":B2_5_0" index="0" speed="13.90" length="20.80" shape="510.40,1004.80 489.60,1004.80"/>
        <lane id=":B2_5_1" index="1" speed="13.90" length="20.80" shape="510.40,1001.60 489.60,1001.60"/>
    </edge>
    <edge id=":B2_7" function="internal">
        <lane id=":B2_7_0" index="0" speed="9.26" length="6.96" shape="510.40,1001.60 505.15,1000.85 503.73,1000.00"/>
    </edge>
    <edge id=":B2_17" function="internal">
        <lane id=":B2_17_0" index="0" speed="9.26" length="12.40" shape="503.73,1000.00 501.40,998.60 499.15,994.85 498.40,989.60"/>
    </edge>
    <edge id=":B2_8" function="internal">
        <lane id=":B2_8_0" index="0" speed="6.51" length="9.03" shape="504.80,989.60 505.15,992.05 506.20,993.80 507.95,994.85 510.40,995.20"/>
    </edge>
    <edge id=":B2_9" function="internal">
        <lane id=":B2_9_0" index="0" speed="13.90" length="20.80" shape="504.80,989.60 504.80,1010.40"/>
        <lane id=":B2_9_1" index="1" speed="13.90" length="20.80" shape="501.60,989.60 501.60,1010.40"/>
    </edge>
    <edge id=":B2_11" function="internal">
        <lane id=":B2_11_0" index="0" speed="9.26" length="6.96" shape="501.60,989.60 500.85,994.85 500.00,996.27"/>
    </edge>
    <edge id=":B2_18" function="internal">
        <lane id=":B2_18_0" index="0" speed="9.26" length="12.40" shape="500.00,996.27 498.60,998.60 494.85,1000.85 489.60,1001.60"/>
    </edge>
    <edge id=":B2_12" function="internal">
        <lane id=":B2_12_0" index="0" speed="6.51" length="9.03" shape="489.60,995.20 492.05,994.85 493.80,993.80 494.85,992.05 495.20,989.60"/>
    </edge>
    <edge id=":B2_13" function="internal">
        <lane id=":B2_13_0" index="0" speed="13.90" length="20.80" shape="489.60,995.20 510.40,995.20"/>
        <lane id=":B2_13_1" index="1" speed="13.90" length="20.80" shape="489.60,998.40 510.40,998.40"/>
    </edge>
    <edge id=":B2_15" function="internal">
        <lane id=":B2_15_0" index="0" speed="9.26" length="6.96" shape="489.60,998.40 494.85,999.15 496.27,1000.00"/>
    </edge>
    <edge id=":B2_19" function="internal">
        <lane id=":B2_19_0" index="0" speed="9.26" length="12.40" shape="496.27,1000.00 498.60,1001.40 500.85,1005.15 501.60,1010.40"/>
    </edge>
    <edge id=":B3_0" function="internal">
        <lane id=":B3_0_0" index="0" speed="6.51" length="9.03" shape="495.20,1510.40 494.85,1507.95 493.80,1506.20 492.05,1505.15 489.60,1504.80"/>
    </edge>
    <edge id=":B3_1" function="internal">
        <lane id=":B3_1_0" index="0" speed="13.90" length="20.80" shape="495.20,1510.40 495.20,1489.60"/>
        <lane id=":B3_1_1" index="1" speed="13.90" length="20.80" shape="498.40,1510.40 498.40,1489.60"/>
    </edge>
    <edge id=":B3_3" function="internal">
        <lane id=":B3_3_0" index="0" speed="9.26" length="6.96" shape="498.40,1510.40 499.15,1505.15 500.00,1503.73"/>
    </edge>
    <edge id=":B3_16" function="internal">
        <lane id=":B3_16_0" index="0" speed="9.26" length="12.40" shape="500.00,1503.73 501.40,1501.40 505.15,1499.15 510.40,1498.40"/>
    </edge>
    <edge id=":B3_4" function="internal">
        <lane id=":B3_4_0" index="0" speed="6.51" length="9.03" shape="510.40,1504.80 507.95,1505.15 506.20,1506.20 505.15,1507.95 504.80,1510.40"/>
    </edge>
    <edge id=":B3_5" function="internal">
        <lane id=":B3_5_0" index="0" speed="13.90" length="20.80" shape="510.40,1504.80 489.60,1504.80"/>
        <lane id=":B3_5_1" index="1" speed="13.90" length="20.80" shape="510.40,1501.60 489.60,1501.60"/>
    </edge>
    <edge id=":B3_7" function="internal">
        <lane id=":B3_7_0" index="0" speed="9.26" length="6.96" shape="510.40,1501.60 505.15,1500.85 503.73,1500.00"/>
    </edge>
    <edge id=":B3_17" function="internal">
        <lane id=":B3_17_0" index="0" speed="9.26" length="12.40" shape="503.73,1500.00 501.40,1498.60 499.15,1494.85 498.40,1489.60"/>
    </edge>
    <edge id=":B3_8" function="internal">
        <lane id=":B3_8_0" index="0" speed="6.51" length="9.03" shape="504.80,1489.60 505.15,1492.05 506.20,1493.80 507.95,1494.85 510.40,1495.20"/>
    </edge>
    <edge id=":B3_9" function="internal">
        <lane id=":B3_9_0" index="0" speed="13.90" length="20.80" shape="504.80,1489.60 504.80,1510.40"/>
        <lane id=":B3_9_1" index="1" speed="13.90" length="20.80" shape="501.60,1489.60 501.60,1510.40"/>
    </edge>
    <edge id=":B3_11" function="internal">
        <lane id=":B3_11_0" index="0" speed="9.26" length="6.96" shape="501.60,1489.60 500.85,1494.85 500.00,1496.27"/>
    </edge>
    <edge id=":B3_18" function="internal">
        <lane id=":B3_18_0" index="0" speed="9.26" length="12.40" shape="500.00,1496.27 498.60,1498.60 494.85,1500.85 489.60,1501.60"/>
    </edge>
    <edge id=":B3_12" function="internal">
        <lane id=":B3_12_0" index="0" speed="6.51" length="9.03" shape="489.60,1495.20 492.05,1494.85 493.80,1493.80 494.85,1492.05 495.20,1489.60"/>
    </edge>
    <edge id=":B3_13" function="internal">
        <lane id=":B3_13_0" index="0" speed="13.90" length="20.80" shape="489.60,1495.20 510.40,1495.20"/>
        <lane id=":B3_13_1" index="1" speed="13.90" length="20.80" shape="489.60,1498.40 510.40,1498.40"/>
    </edge>
    <edge id=":B3_15" function="internal">
        <lane id=":B3_15_0" index="0" speed="9.26" length="6.96" shape="489.60,1498.40 494.85,1499.15 496.27,1500.00"/>
    </edge>
    <edge id=":B3_19" function="internal">
        <lane id=":B3_19_0" index="0" speed="9.26" length="12.40" shape="496.27,1500.00 498.60,1501.40 500.85,1505.15 501.60,1510.40"/>
    </edge>
    <edge id=":B4_0" function="internal">
        <lane id=":B4_0_0" index="0" speed="13.90" length="20.80" shape="510.40,2004.80 489.60,2004.80"/>
        <lane id=":B4_0_1" index="1" speed="13.90" length="20.80" shape="510.40,2001.60 489.60,2001.60"/>
    </edge>
    <edge id=":B4_2" function="internal">
        <lane id=":B4_2_0" index="0" speed="9.26" length="6.96" shape="510.40,2001.60 505.15,2000.85 503.73,2000.00"/>
    </edge>
    <edge id=":B4_9" function="internal">
        <lane id=":B4_9_0" index="0" speed="9.26" length="12.40" shape="503.73,2000.00 501.40,1998.60 499.15,1994.85 498.40,1989.60"/>
    </edge>
    <edge id=":B4_3" function="internal">
        <lane id=":B4_3_0" index="0" speed="6.51" length="9.03" shape="504.80,1989.60 505.15,1992.05 506.20,1993.80 507.95,1994.85 510.40,1995.20"/>
        <lane id=":B4_3_1" index="1" speed="8.00" length="14.19" shape="501.60,1989.60 502.15,1993.45 503.80,1996.20 506.55,1997.85 510.40,1998.40"/>
    </edge>
    <edge id=":B4_5" function="internal">
        <lane id=":B4_5_0" index="0" speed="9.26" length="19.35" shape="501.60,1989.60 500.85,1994.85 498.60,1998.60 494.85,2000.85 489.60,2001.60"/>
    </edge>
    <edge id=":B4_6" function="internal">
        <lane id=":B4_6_0" index="0" speed="6.51" length="9.03" shape="489.60,1995.20 492.05,1994.85 493.80,1993.80 494.85,1992.05 495.20,1989.60"/>
    </edge>
    <edge id=":B4_7" function="internal">
        <lane id=":B4_7_0" index="0" speed="13.90" length="20.80" shape="489.60,1995.20 510.40,1995.20"/>
        <lane id=":B4_7_1" index="1" speed="13.90" length="20.80" shape="489.60,1998.40 510.40,1998.40"/>
    </edge>
    <edge id=":C0_0" function="internal">
        <lane id=":C0_0_0" index="0" speed="6.51" length="9.03" shape="995.20,10.40 994.85,7.95 993.80,6.20 992.05,5.15 989.60,4.80"/>
        <lane id=":C0_0_1" index="1" speed="8.00" length="14.19" shape="998.40,10.40 997.85,6.55 996.20,3.80 993.45,2.15 989.60,1.60"/>
    </edge>
    <edge id=":C0_2" function="internal">
        <lane id=":C0_2_0" index="0" speed="9.26" length="19.35" shape="998.40,10.40 999.15,5.15 1001.40,1.40 1005.15,-0.85 1010.40,-1.60"/>
    </edge>
    <edge id=":C0_3" function="internal">
        <lane id=":C0_3_0" index="0" speed="6.51" length="9.03" shape="1010.40,4.80 1007.95,5.15 1006.20,6.20 1005.15,7.95 1004.80,10.40"/>
    </edge>
    <edge id=":C0_4" function="internal">
        <lane id=":C0_4_0" index="0" speed="13.90" length="20.80" shape="1010.40,4.80 989.60,4.80"/>
        <lane id=":C0_4_1" index="1" speed="13.90" length="20.80" shape="1010.40,1.60 989.60,1.60"/>
    </edge>
    <edge id=":C0_6" function="internal">
        <lane id=":C0_6_0" index="0" speed="13.90" length="20.80" shape="989.60,-4.80 1010.40,-4.80"/>
        <lane id=":C0_6_1" index="1" speed="13.90" length="20.80" shape="989.60,-1.60 1010.40,-1.60"/>
    </edge>
    <edge id=":C0_8" function="internal">
        <lane id=":C0_8_0" index="0" speed="9.26" length="6.96" shape="989.60,-1.60 994.85,-0.85 996.27,-0.00"/>
    </edge>
    <edge id=":C0_9" function="internal">
        <lane id=":C0_9_0" index="0" speed="9.26" length="12.40" shape="996.27,-0.00 998.60,1.40 1000.85,5.15 1001.60,10.40"/>
    </edge>
    <edge id=":C1_0" function="internal">
        <lane id=":C1_0_0" index="0" speed="6.51" length="9.03" shape="995.20,510.40 994.85,507.95 993.80,506.20 992.05,505.15 989.60,504.80"/>
    </edge>
    <edge id=":C1_1" function="internal">
        <lane id=":C1_1_0" index="0" speed="13.90" length="20.80" shape="995.20,510.40 995.20,489.60"/>
        <lane id=":C1_1_1" index="1" speed="13.90" length="20.80" shape="998.40,510.40 998.40,489.60"/>
    </edge>
    <edge id=":C1_3" function="internal">
        <lane id=":C1_3_0" index="0" speed="9.26" length="6.96" shape="998.40,510.40 999.15,505.15 1000.00,503.73"/>
    </edge>
    <edge id=":C1_16" function="internal">
        <lane id=":C1_16_0" index="0" speed="9.26" length="12.40" shape="1000.00,503.73 1001.40,501.40 1005.15,499.15 1010.40,498.40"/>
    </edge>
    <edge id=":C1_4" function="internal">
        <lane id=":C1_4_0" index="0" speed="6.51" length="9.03" shape="1010.40,504.80 1007.95,505.15 1006.20,506.20 1005.15,507.95 1004.80,510.40"/>
    </edge>
    <edge id=":C1_5" function="internal">
        <lane id=":C1_5_0" index="0" speed="13.90" length="20.80" shape="1010.40,504.80 989.60,504.80"/>
        <lane id=":C1_5_1" index="1" speed="13.90" length="20.80" shape="1010.40,501.60 989.60,501.60"/>
    </edge>
    <edge id=":C1_7" function="internal">
        <lane id=":C1_7_0" index="0" speed="9.26" length="6.96" shape="1010.40,501.60 1005.15,500.85 1003.73,500.00"/>
    </edge>
    <edge id=":C1_17" function="internal">
        <lane id=":C1_17_0" index="0" speed="9.26" length="12.40" shape="1003.73,500.00 1001.40,498.60 999.15,494.85 998.40,489.60"/>
    </edge>
    <edge id=":C1_8" function="internal">
        <lane id=":C1_8_0" index="0" speed="6.51" length="9.03" shape="1004.80,489.60 1005.15,492.05 1006.20,493.80 1007.95,494.85 1010.40,495.20"/>
    </edge>
    <edge id=":C1_9" function="internal">
        <lane id=":C1_9_0" index="0" speed="13.90" length="20.80" shape="1004.80,489.60 1004.80,510.40"/>
        <lane id=":C1_9_1" index="1" speed="13.90" length="20.80" shape="1001.60,489.60 1001.60,510.40"/>
    </edge>
    <edge id=":C1_11" function="internal">
        <lane id=":C1_11_0" index="0" speed="9.26" length="6.96" shape="1001.60,489.60 1000.85,494.85 1000.00,496.27"/>
    </edge>
    <edge id=":C1_18" function="internal">
        <lane id=":C1_18_0" index="0" speed="9.26" length="12.40" shape="1000.00,496.27 998.60,498.60 994.85,500.85 989.60,501.60"/>
    </edge>
    <edge id=":C1_12" function="internal">
        <lane id=":C1_12_0" index="0" speed="6.51" length="9.03" shape="989.60,495.20 992.05,494.85 993.80,493.80 994.85,492.05 995.20,489.60"/>
    </edge>
    <edge id=":C1_13" function="internal">
        <lane id=":C1_13_0" index="0" speed="13.90" length="20.80" shape="989.60,495.20 1010.40,495.20"/>
        <lane id=":C1_13_1" index="1" speed="13.90" length="20.80" shape="989.60,498.40 1010.40,498.40"/>
    </edge>
    <edge id=":C1_15" function="internal">
        <lane id=":C1_15_0" index="0" speed="9.26" length="6.96" shape="989.60,498.40 994.85,499.15 996.27,500.00"/>
    </edge>
    <edge id=":C1_19" function="internal">
        <lane id=":C1_19_0" index="0" speed="9.26" length="12.40" shape="996.27,500.00 998.60,501.40 1000.85,505.15 1001.60,510.40"/>
    </edge>
    <edge id=":C2_0" function="internal">
        <lane id=":C2_0_0" index="0" speed="6.51" length="9.03" shape="995.20,1010.40 994.85,1007.95 993.80,1006.20 992.05,1005.15 989.60,1004.80"/>
    </edge>
    <edge id=":C2_1" function="internal">
        <lane id=":C2_1_0" index="0" speed="13.90" length="20.80" shape="995.20,1010.40 995.20,989.60"/>
        <lane id=":C2_1_1" index="1" speed="13.90" length="20.80" shape="998.40,1010.40 998.40,989.60"/>
    </edge>
    <edge id=":C2_3" function="internal">
        <lane id=":C2_3_0" index="0" speed="9.26" length="6.96" shape="998.40,1010.40 999.15,1005.15 1000.00,1003.73"/>
    </edge>
    <edge id=":C2_16" function="internal">
        <lane id=":C2_16_0" index="0" speed="9.26" length="12.40" shape="1000.00,1003.73 1001.40,1001.40 1005.15,999.15 1010.40,998.40"/>
    </edge>
    <edge id=":C2_4" function="internal">
        <lane id=":C2_4_0" index="0" speed="6.51" length="9.03" shape="1010.40,1004.80 1007.95,1005.15 1006.20,1006.20 1005.15,1007.95 1004.80,1010.40"/>
    </edge>
    <edge id=":C2_5" function="internal">
        <lane id=":C2_5_0" index="0" speed="13.90" length="20.80" shape="1010.40,1004.80 989.60,1004.80"/>
        <lane id=":C2_5_1" index="1" speed="13.90" length="20.80" shape="1010.40,1001.60 989.60,1001.60"/>
    </edge>
    <edge id=":C2_7" function="internal">
        <lane id=":C2_7_0" index="0" speed="9.26" length="6.96" shape="1010.40,1001.60 1005.15,1000.85 1003.73,1000.00"/>
    </edge>
    <edge id=":C2_17" function="internal">
        <lane id=":C2_17_0" index="0" speed="9.26" length="12.40" shape="1003.73,1000.00 1001.40,998.60 999.15,994.85 998.40,989.60"/>
    </edge>
    <edge id=":C2_8" function="internal">
        <lane id=":C2_8_0" index="0" speed="6.51" length="9.03" shape="1004.80,989.60 1005.15,992.05 1006.20,993.80 1007.95,994.85 1010.40,995.20"/>
    </edge>
    <edge id=":C2_9" function="internal">
        <lane id=":C2_9_0" index="0" speed="13.90" length="20.80" shape="1004.80,989.60 1004.80,1010.40"/>
        <lane id=":C2_9_1" index="1" speed="13.90" length="20.80" shape="1001.60,989.60 1001.60,1010.40"/>
    </edge>
    <edge id=":C2_11" function="internal">
        <lane id=":C2_11_0" index="0" speed="9.26" length="6.96" shape="1001.60,989.60 1000.85,994.85 1000.00,996.27"/>
    </edge>
    <edge id=":C2_18" function="internal">
        <lane id=":C2_18_0" index="0" speed="9.26" length="12.40" shape="1000.00,996.27 998.60,998.60 994.85,1000.85 989.60,1001.60"/>
    </edge>
    <edge id=":C2_12" function="internal">
        <lane id=":C2_12_0" index="0" speed="6.51" length="9.03" shape="989.60,995.20 992.05,994.85 993.80,993.80 994.85,992.05 995.20,989.60"/>
    </edge>
    <edge id=":C2_13" function="internal">
        <lane id=":C2_13_0" index="0" speed="13.90" length="20.80" shape="989.60,995.20 1010.40,995.20"/>
        <lane id=":C2_13_1" index="1" speed="13.90" length="20.80" shape="989.60,998.40 1010.40,998.40"/>
    </edge>
    <edge id=":C2_15" function="internal">
        <lane id=":C2_15_0" index="0" speed="9.26" length="6.96" shape="989.60,998.40 994.85,999.15 996.27,1000.00"/>
    </edge>
    <edge id=":C2_19" function="internal">
        <lane id=":C2_19_0" index="0" speed="9.26" length="12.40" shape="996.27,1000.00 998.60,1001.40 1000.85,1005.15 1001.60,1010.40"/>
    </edge>
    <edge id=":C3_0" function="internal">
        <lane id=":C3_0_0" index="0" speed="6.51" length="9.03" shape="995.20,1510.40 994.85,1507.95 993.80,1506.20 992.05,1505.15 989.60,1504.80"/>
    </edge>
    <edge id=":C3_1" function="internal">
        <lane id=":C3_1_0" index="0" speed="13.90" length="20.80" shape="995.20,1510.40 995.20,1489.60"/>
        <lane id=":C3_1_1" index="1" speed="13.90" length="20.80" shape="998.40,1510.40 998.40,1489.60"/>
    </edge>
    <edge id=":C3_3" function="internal">
        <lane id=":C3_3_0" index="0" speed="9.26" length="6.96" shape="998.40,1510.40 999.15,1505.15 1000.00,1503.73"/>
    </edge>
    <edge id=":C3_16" function="internal">
        <lane id=":C3_16_0" index="0" speed="9.26" length="12.40" shape="1000.00,1503.73 1001.40,1501.40 1005.15,1499.15 1010.40,1498.40"/>
    </edge>
    <edge id=":C3_4" function="internal">
        <lane id=":C3_4_0" index="0" speed="6.51" length="9.03" shape="1010.40,1504.80 1007.95,1505.15 1006.20,1506.20 1005.15,1507.95 1004.80,1510.40"/>
    </edge>
    <edge id=":C3_5" function="internal">
        <lane id=":C3_5_0" index="0" speed="13.90" length="20.80" shape="1010.40,1504.80 989.60,1504.80"/>
        <lane id=":C3_5_1" index="1" speed="13.90" length="20.80" shape="1010.40,1501.60 989.60,1501.60"/>
    </edge>
    <edge id=":C3_7" function="internal">