<?xml version="1.0" encoding="UTF-8"?>
<routes xmlns:xsi="http://www.w3.org/2001/XMLSchema-instance" xsi:noNamespaceSchemaLocation="http://sumo.dlr.de/xsd/routes_file.xsd">
  <!--Namespace(N=75, filecount=None, input='routes.txt', launch=False, output='singleIntersection.rou.xml', quarter=100)-->
  <vType id="ambulance" length="6.00" maxSpeed="50.00" color="red" accel="2.0" decel="4.5" sigma="0.5"/>
  
  <trip id="ambulance_1" depart="0.02" from="-927793498#3" to="-3789702" type="ambulance"/>
  <trip id="ambulance_2" depart="0.04" from="-927793498#3" to="-3789702" type="ambulance"/>
  <trip id="ambulance_3" depart="0.06" from="-927793498#3" to="-3789702" type="ambulance"/>
  <trip id="ambulance_4" depart="0.08" from="-927793498#3" to="-3789702" type="ambulance"/>
  <trip id="ambulance_5" depart="0.10" from="-927793498#3" to="-3789702" type="ambulance"/>
  <trip id="ambulance_6" depart="0.12" from="-927793498#3" to="-3789702" type="ambulance"/>
  <trip id="ambulance_7" depart="0.14" from="-927793498#3" to="-3789702" type="ambulance"/>
  <trip id="ambulance_8" depart="0.16" from="-927793498#3" to="-3789702" type="ambulance"/>
  <trip id="ambulance_9" depart="0.18" from="-927793498#3" to="-3789702" type="ambulance"/>
  <trip id="ambulance_10" depart="0.20" from="-927793498#3" to="-3789702" type="ambulance"/>
  <trip id="ambulance_11" depart="0.22" from="-927793498#3" to="-3789702" type="ambulance"/>
  <trip id="ambulance_12" depart="0.24" from="-927793498#3" to="-3789702" type="ambulance"/>
  <trip id="ambulance_13" depart="0.26" from="-927793498#3" to="-3789702" type="ambulance"/>
  <trip id="ambulance_14" depart="0.28" from="-927793498#3" to="-3789702" type="ambulance"/>
  <trip id="ambulance_15" depart="0.30" from="-927793498#3" to="-3789702" type="ambulance"/>
  <trip id="ambulance_16" depart="0.32" from="-927793498#3" to="-3789702" type="ambulance"/>
  <trip id="ambulance_17" depart="0.34" from="-927793498#3" to="-3789702" type="ambulance"/>
  <trip id="ambulance_18" depart="0.36" from="-927793498#3" to="-3789702" type="ambulance"/>
  <trip id="ambulance_19" depart="0.38" from="-927793498#3" to="-3789702" type="ambulance"/>
  <trip id="ambulance_20" depart="0.40" from="-927793498#3" to="-3789702" type="ambulance"/>
  <trip id="ambulance_21" depart="0.42" from="-927793498#3" to="-3789702" type="ambulance"/>
  <trip id="ambulance_22" depart="0.44" from="-927793498#3" to="-3789702" type="ambulance"/>
  <trip id="ambulance_23" depart="0.46" from="-927793498#3" to="-3789702" type="ambulance"/>
  <trip id="ambulance_24" depart="0.48" from="-927793498#3" to="-3789702" type="ambulance"/>
  <trip id="ambulance_25" depart="0.50" from="-927793498#3" to="-3789702" type="ambulance"/>
  <trip id="ambulance_26" depart="0.52" from="-927793498#3" to="-3789702" type="ambulance"/>
  <trip id="ambulance_27" depart="0.54" from="-927793498#3" to="-3789702" type="ambulance"/>
  <trip id="ambulance_28" depart="0.56" from="-927793498#3" to="-3789702" type="ambulance"/>
  <trip id="ambulance_29" depart="0.58" from="-927793498#3" to="-3789702" type="ambulance"/>
  <trip id="ambulance_30" depart="0.60" from="-927793498#3" to="-3789702" type="ambulance"/>
  <trip id="ambulance_31" depart="0.62" from="-927793498#3" to="-3789702" type="ambulance"/>
  <trip id="ambulance_32" depart="0.64" from="-927793498#3" to="-3789702" type="ambulance"/>
  <trip id="ambulance_33" depart="0.66" from="-927793498#3" to="-3789702" type="ambulance"/>
  <trip id="ambulance_34" depart="0.68" from="-927793498#3" to="-3789702" type="ambulance"/>
  <trip id="ambulance_35" depart="0.70" from="-927793498#3" to="-3789702" type="ambulance"/>
  <trip id="ambulance_36" depart="0.72" from="-927793498#3" to="-3789702" type="ambulance"/>
  <trip id="ambulance_37" depart="0.74" from="-927793498#3" to="-3789702" type="ambulance"/>
  <trip id="ambulance_38" depart="0.76" from="-927793498#3" to="-3789702" type="ambulance"/>
  <trip id="ambulance_39" depart="0.78" from="-927793498#3" to="-3789702" type="ambulance"/>
  <trip id="ambulance_40" depart="0.80" from="-927793498#3" to="-3789702" type="ambulance"/>
</routes>