<?xml version="1.0" encoding="UTF-8"?>
<routes xmlns:xsi="http://www.w3.org/2001/XMLSchema-instance" xsi:noNamespaceSchemaLocation="http://sumo.dlr.de/xsd/routes_file.xsd">
  <!--Namespace(N=75, filecount=None, input='routes.txt', launch=False, output='singleIntersection.rou.xml', quarter=100)-->
  <vType id="ambulance" length="6.00" maxSpeed="50.00" color="red" accel="2.0" decel="4.5" sigma="0.5"/>

  
  <trip id="ambulance_1" depart="0.02" from="-927793498#3" to="-3789702" type="ambulance"/>
  <trip id="ambulance_2" depart="0.04" from="-927793498#3" to="-3789702" type="ambulance"/>
  <trip id="ambulance_3" depart="0.06" from="-927793498#3" to="-3789702" type="ambulance"/>
  <trip id="ambulance_4" depart="0.08" from="-927793498#3" to="-3789702" type="ambulance"/>
  <trip id="ambulance_5" depart="0.10" from="-927793498#3" to="-3789702" type="ambulance"/>
  <trip id="ambulance_6" depart="0.12" from="-927793498#3" to="-3789702" type="ambulance"/>
  <trip id="ambulance_7" depart="0.14" from="-927793498#3" to="-3789702" type="ambulance"/>
  <trip id="ambulance_8" depart="0.16" from="-927793498#3" to="-3789702" type="ambulance"/>
  <trip id="ambulance_9" depart="0.18" from="-927793498#3" to="-3789702" type="ambulance"/>
  <trip id="ambulance_10" depart="0.20" from="-927793498#3" to="-3789702" type="ambulance"/>
  <trip id="ambulance_11" depart="0.22" from="-927793498#3" to="-3789702" type="ambulance"/>
  <trip id="ambulance_12" depart="0.24" from="-927793498#3" to="-3789702" type="ambulance"/>
  <trip id="ambulance_13" depart="0.26" from="-927793498#3" to="-3789702" type="ambulance"/>
  <trip id="ambulance_14" depart="0.28" from="-927793498#3" to="-3789702" type="ambulance"/>
  <trip id="ambulance_15" depart="0.30" from="-927793498#3" to="-3789702" type="ambulance"/>
  <trip id="ambulance_16" depart="0.32" from="-927793498#3" to="-3789702" type="ambulance"/>
  <trip id="ambulance_17" depart="0.34" from="-927793498#3" to="-3789702" type="ambulance"/>
  <trip id="ambulance_18" depart="0.36" from="-927793498#3" to="-3789702" type="ambulance"/>
  <trip id="ambulance_19" depart="0.38" from="-927793498#3" to="-3789702" type="ambulance"/>
  <trip id="ambulance_20" depart="0.40" from="-927793498#3" to="-3789702" type="ambulance"/>

  

  
</routes>