<?xml version="1.0" encoding="UTF-8"?>
<routes xmlns:xsi="http://www.w3.org/2001/XMLSchema-instance" xsi:noNamespaceSchemaLocation="http://sumo.dlr.de/xsd/routes_file.xsd">
    <vType id="bus__bus" vClass="bus" maxSpeed="50" accel="1.5" decel="3.0" length="12" sigma="1.0"/>
    
    <trip id="bus_1" depart="0.02" from="366994036#4" to="30443542#4" type="bus__bus"/>
    <trip id="bus_2" depart="0.04" from="-81355104#3" to="-1209572836" type="bus__bus"/>
    <trip id="bus_3" depart="0.06" from="-32654296#0" to="125880830#6" type="bus__bus"/>
    <trip id="bus_4" depart="0.08" from="4215665#2" to="-1058177450" type="bus__bus"/>
    <trip id="bus_5" depart="0.10" from="48226178#0" to="20686408" type="bus__bus"/>
    <trip id="bus_6" depart="0.12" from="-14047787#1" to="-363177780" type="bus__bus"/>
    <trip id="bus_7" depart="0.14" from="24777066" to="-540660006#6" type="bus__bus"/>
    <trip id="bus_8" depart="0.16" from="-54703304" to="-32456004#2" type="bus__bus"/>
    <trip id="bus_9" depart="0.18" from="-3791415#1" to="695678822#0" type="bus__bus"/>
    <trip id="bus_10" depart="0.20" from="-282469710#1" to="-5825856#2" type="bus__bus"/>
    <trip id="bus_11" depart="0.22" from="927793497" to="256045302#2" type="bus__bus"/>
    <trip id="bus_12" depart="0.24" from="-35060878#2" to="-122817907" type="bus__bus"/>
    <trip id="bus_13" depart="0.26" from="-44456341#2" to="-3791426#2" type="bus__bus"/>
    <trip id="bus_14" depart="0.28" from="-32456019#5" to="7415911#0" type="bus__bus"/>
    <trip id="bus_15" depart="0.30" from="56044068#0" to="1083272386" type="bus__bus"/>
    <trip id="bus_16" depart="0.32" from="22673171" to="53086764" type="bus__bus"/>
    <trip id="bus_17" depart="0.34" from="814341844#3" to="48204019#3" type="bus__bus"/>
    <trip id="bus_18" depart="0.36" from="-1088842439#1" to="3285419#1" type="bus__bus"/>
    <trip id="bus_19" depart="0.38" from="558112093#1" to="491172033#2" type="bus__bus"/>
    <trip id="bus_20" depart="0.40" from="4937391#0" to="44369404#0" type="bus__bus"/>
    <trip id="bus_21" depart="0.42" from="-440758783#3" to="-129211815" type="bus__bus"/>
    <trip id="bus_22" depart="0.44" from="4937063#6" to="75741007" type="bus__bus"/>
    <trip id="bus_23" depart="0.46" from="-156382490#2" to="1182510766#1" type="bus__bus"/>
    <trip id="bus_24" depart="0.48" from="967770542" to="272194195" type="bus__bus"/>
    <trip id="bus_25" depart="0.50" from="-22973973#0" to="-33238674" type="bus__bus"/>
    <trip id="bus_26" depart="0.52" from="-354359921#1" to="-326772512#1" type="bus__bus"/>
    <trip id="bus_27" depart="0.54" from="683893001" to="192108775#2" type="bus__bus"/>
    <trip id="bus_28" depart="0.56" from="1124480971" to="3819300#12" type="bus__bus"/>
    <trip id="bus_29" depart="0.58" from="-200170062#5" to="-8684629#27" type="bus__bus"/>
    <trip id="bus_30" depart="0.60" from="-316970042#2" to="10278921#9" type="bus__bus"/>
    <trip id="bus_31" depart="0.62" from="-81355104#3" to="-38932600#2" type="bus__bus"/>
    <trip id="bus_32" depart="0.64" from="-976240607#1" to="48205721#2" type="bus__bus"/>
    <trip id="bus_33" depart="0.66" from="45530929#1" to="-29266714#0" type="bus__bus"/>
    <trip id="bus_34" depart="0.68" from="1180091040" to="-32456048#0" type="bus__bus"/>
    <trip id="bus_35" depart="0.70" from="7988564#0" to="97092770#0" type="bus__bus"/>
    <trip id="bus_36" depart="0.72" from="-26192220#1" to="-42299052" type="bus__bus"/>
    <trip id="bus_37" depart="0.74" from="22871079#1" to="23307662#3" type="bus__bus"/>
    <trip id="bus_38" depart="0.76" from="-13866340#2" to="1082775126" type="bus__bus"/>
    <trip id="bus_39" depart="0.78" from="-13871250" to="-32456043#0" type="bus__bus"/>
    <trip id="bus_40" depart="0.80" from="-54703293" to="-271108063#1" type="bus__bus"/>
    <trip id="bus_41" depart="0.82" from="44402155" to="32117788#4" type="bus__bus"/>
    <trip id="bus_42" depart="0.84" from="279100452#2" to="-1080987236#1" type="bus__bus"/>
    <trip id="bus_43" depart="0.86" from="24776090#2" to="-3787045#0" type="bus__bus"/>
    <trip id="bus_44" depart="0.88" from="4540451#3" to="-18958437#0" type="bus__bus"/>
    <trip id="bus_45" depart="0.90" from="-81982578#2" to="-38574540#1" type="bus__bus"/>
    <trip id="bus_46" depart="0.92" from="252422930#2" to="-37827161#4" type="bus__bus"/>
    <trip id="bus_47" depart="0.94" from="36893592#0" to="14047195" type="bus__bus"/>
    <trip id="bus_48" depart="0.96" from="-13904657" to="498050719#1" type="bus__bus"/>
    <trip id="bus_49" depart="0.98" from="44409756#0" to="22560241" type="bus__bus"/>
    <trip id="bus_50" depart="1.00" from="-252266037#1" to="-23064780#8" type="bus__bus"/>
    <trip id="bus_51" depart="1.02" from="39523885#10" to="48204019#0" type="bus__bus"/>
    <trip id="bus_52" depart="1.04" from="38070490#0" to="498404425#1" type="bus__bus"/>
    <trip id="bus_53" depart="1.06" from="48299355#0" to="849781609" type="bus__bus"/>
    <trip id="bus_54" depart="1.08" from="-1159826837" to="36711539#0" type="bus__bus"/>
    <trip id="bus_55" depart="1.10" from="-471689836#1" to="661032519#0" type="bus__bus"/>
    <trip id="bus_56" depart="1.12" from="40988807#7" to="482888349#1" type="bus__bus"/>
    <trip id="bus_57" depart="1.14" from="394233223#0" to="-33911137#2" type="bus__bus"/>
    <trip id="bus_58" depart="1.16" from="-114208222#0" to="-317145973#2" type="bus__bus"/>
    <trip id="bus_59" depart="1.18" from="-4629001#1" to="4829626#0" type="bus__bus"/>
    <trip id="bus_60" depart="1.20" from="8027148#7" to="-38933194#0" type="bus__bus"/>
    <trip id="bus_61" depart="1.22" from="257309817" to="-7415909" type="bus__bus"/>
    <trip id="bus_62" depart="1.24" from="8690388#0" to="13287375" type="bus__bus"/>
    <trip id="bus_63" depart="1.26" from="8003977#4" to="-3788877#5" type="bus__bus"/>
    <trip id="bus_64" depart="1.28" from="34886776#0" to="-44415408#0" type="bus__bus"/>
    <trip id="bus_65" depart="1.30" from="-632039350#1" to="20485044#0" type="bus__bus"/>
    <trip id="bus_66" depart="1.32" from="-3761190#2" to="32456019#6" type="bus__bus"/>
    <trip id="bus_67" depart="1.34" from="136758284" to="32744354#2" type="bus__bus"/>
    <trip id="bus_68" depart="1.36" from="-540660003#1" to="-137667338#1" type="bus__bus"/>
    <trip id="bus_69" depart="1.38" from="-44430032#4" to="4541293#5" type="bus__bus"/>
    <trip id="bus_70" depart="1.40" from="-766029598#3" to="-42239606#1" type="bus__bus"/>
    <trip id="bus_71" depart="1.42" from="-23064780#2" to="-810833312" type="bus__bus"/>
    <trip id="bus_72" depart="1.44" from="-865406660#1" to="215300157" type="bus__bus"/>
    <trip id="bus_73" depart="1.46" from="282195032#2" to="10906623#1" type="bus__bus"/>
    <trip id="bus_74" depart="1.48" from="-971238420" to="-32456046#9" type="bus__bus"/>
    <trip id="bus_75" depart="1.50" from="1125712378" to="541484858" type="bus__bus"/>
    <trip id="bus_76" depart="1.52" from="39523682#1" to="-295117469#0" type="bus__bus"/>
    <trip id="bus_77" depart="1.54" from="-155815976" to="127888086#0" type="bus__bus"/>
    <trip id="bus_78" depart="1.56" from="-318765003" to="-1156359925#0" type="bus__bus"/>
    <trip id="bus_79" depart="1.58" from="-8003978#0" to="24280564#1" type="bus__bus"/>
    <trip id="bus_80" depart="1.60" from="124755307#3" to="-3708464#1" type="bus__bus"/>
</routes>
