<configuration>
  <input>
    <net-file value="osm.net.xml"/>
    <route-files value="ambulance.fast.low.trips.xml, bus.slow.low.trips.xml"/>
  </input>
  <time>
    <begin value="0"/>
    <end value="600"/>
    <step-length value="0.1"/>
  </time>
</configuration>